FoamFile
{
    version         2.0;
    format          ascii;

    root            "";
    case            "";
    instance        "";
    local           "";

    class           dictionary;
    object          controlDict;
}

startFrom       startTime;
startTime       0;
stopAt          endTime;
endTime         32;
deltaT          32;
writeControl    runTime;
writeInterval   32;
purgeWrite      0;
writeFormat     binary;
writePrecision  6;
writeCompression uncompressed;
timeFormat      general;
timePrecision   6;
runTimeModifiable yes;
adjustTimeStep no;
maxCo          1;
libs            ("libExnerTheta.so" "libfiniteVolumeUser.so");
