/*--------------------------------*- C++ -*----------------------------------*\
| =========                 |                                                 |
| \\      /  F ield         | OpenFOAM: The Open Source CFD Toolbox           |
|  \\    /   O peration     | Version:  2.3.0                                 |
|   \\  /    A nd           | Web:      www.OpenFOAM.org                      |
|    \\/     M anipulation  |                                                 |
\*---------------------------------------------------------------------------*/
FoamFile
{
    version     2.0;
    format      ascii;
    class       polyBoundaryMesh;
    location    "constant/polyMesh";
    object      boundary;
}
// * * * * * * * * * * * * * * * * * * * * * * * * * * * * * * * * * * * * * //

5
(
    inlet
    {
        type            patch;
        nFaces          5;
        startFace       31;
    }
    outlet
    {
        type            patch;
        nFaces          5;
        startFace       36;
    }
    ground
    {
        type            wall;
        inGroups        1(wall);
        nFaces          4;
        startFace       41;
    }
    top
    {
        type            wall;
        inGroups        1(wall);
        nFaces          4;
        startFace       45;
    }
    frontAndBack
    {
        type            empty;
        inGroups        1(empty);
        nFaces          40;
        startFace       49;
    }
)

// ************************************************************************* //
