FoamFile {
    version     2.0;
    format      ascii;
    class       dictionary;
    location    "system";
    object      fvSchemes;
}

#include "../../system/fvSchemes"

divSchemes {
    default         none;
    div(phi,T)      Gauss vanLeer;
}
