FoamFile {
    version     2.0;
    format      ascii;
    class       dictionary;
    object      blockMeshDict;
}

vertices (
    ( 0  0  0) // 0
    (40  0  0) // 1
    (40 10  0) // 2
    ( 0 10  0) // 3
    ( 0  0 50) // 4
    (40  0 50) // 5
    (40 10 50) // 6
    ( 0 10 50) // 7
);

blocks (
	hex (0 1 2 3 4 5 6 7)
	    (4 1 5)
	    simpleGrading (1 1 1)
);

boundary (
	inlet {
		type patch;
		faces (
			(0 3 7 4)
		);
	}

	outlet {
		type patch;
		faces (
			(1 2 6 5)
		);
	}

	ground {
		type wall;
		faces (
			(0 1 2 3)
		);	
	}

	top {
		type wall;
		faces (
			(4 5 6 7)
		);
	}

	frontAndBack {
		type empty;
		faces (
			(0 1 5 4)
			(3 2 6 7)
		);
	}
);
