FoamFile
{
    version         1.4;
    format          ascii;

    root            "";
    case            "";
    instance        "constant";
    local           "";

    class           dictionary;
    object          gmtDict;
}

// How to plot
// Compulsory inputs
projection "X18c/10c";
projection2D XZ;

FieldsToPlot
(
    [muSponge rawValues 0 0 0 "$GMTU/colours/white_blue_red.cpt"]
);

region "-150e3/150e3/15e3/30e3";

