FoamFile
{
    version         1.4;
    format          ascii;

    root            "";
    case            "";
    instance        "constant";
    local           "";

    class           dictionary;
    object          gmtDict;
}

projection "X20c/20c";
projection2D XZ;

FieldsToPlot (
    [T filledContours 0 1 0.1 "$GMTU/colours/red_white_blue.cpt"]
    [none mesh ",100"]
    [U vectors 100 1 "white"]
);

region "-25e3/25e3/0/15e3";
boundaryMarks "25e3/5e3SWne";
