FoamFile {
    version     2.0;
    format      ascii;
    class       dictionary;
    object      blockMeshDict;
}

vertices (
    (-10 0  -1)  // 0
    (10  0  -1)  // 1
    (10  10 -1)  // 2
    (-10 10 -1)  // 3
    (-10 0  19) // 4
    (10  0  19) // 5
    (10  10 19) // 6
    (-10 10 19) // 7
);

blocks (
	hex (0 1 2 3 4 5 6 7)
	    (2 1 2)
	    simpleGrading (1 1 1)
);

boundary (
	inlet {
		type patch;
		faces (
			(0 3 7 4)
		);
	}

	outlet {
		type patch;
		faces (
			(1 2 6 5)
		);
	}

	ground {
		type wall;
		faces (
			(0 1 2 3)
		);	
	}

	top {
		type wall;
		faces (
			(4 5 6 7)
		);
	}

	frontAndBack {
		type empty;
		faces (
			(0 1 5 4)
			(3 2 6 7)
		);
	}
);
