FoamFile {
    version     2.0;
    format      ascii;
    class       polyBoundaryMesh;
    location    "constant/polyMesh";
    object      boundary;
}

(
	ground {
		type		wall;
		nFaces		1;
		startFace	1;
	}

	upperLid {
		type		wall;
		nFaces		1;
		startFace	4;
	}

	leftWall {
		type		patch;
		nFaces		1;
		startFace	2;
	}

	rightWall {
		type		wall;
		nFaces		1;
		startFace	5;
	}

	frontAndBack {
		type		empty;
		nFaces		2;
		startFace	0;
	}
)
