FoamFile {
    version     2.0;
    format      ascii;
    class       dictionary;
    location    "system";
    object      fvSchemes;
}

#include "$COMMON_CASE/system/fvSchemesAdvection"

divSchemes {
    div(U)         Gauss linear;
    div(phi,T)      Gauss cubicUpwindCPCFit 3;
}
