/*--------------------------------*- C++ -*----------------------------------*\
| =========                 |                                                 |
| \\      /  F ield         | OpenFOAM: The Open Source CFD Toolbox           |
|  \\    /   O peration     | Version:  2.3.0                                 |
|   \\  /    A nd           | Web:      www.OpenFOAM.org                      |
|    \\/     M anipulation  |                                                 |
\*---------------------------------------------------------------------------*/
FoamFile
{
    version     2.0;
    format      ascii;
    class       polyBoundaryMesh;
    location    "constant/polyMesh";
    object      boundary;
}
// * * * * * * * * * * * * * * * * * * * * * * * * * * * * * * * * * * * * * //
(
    inlet
    {
        type            inlet;
        nFaces          100;
        startFace       119295;
        faces           ( ( 0 3 7 4 ) );
    }
    outlet
    {
        type            outlet;
        nFaces          100;
        startFace       119395;
        faces           ( ( 1 2 6 5 ) );
    }
    top
    {
        type            wall;
        inGroups        1(wall);
        nFaces          600;
        startFace       119495;
    }
    frontAndBack
    {
        type            empty;
        inGroups        1(empty);
        nFaces          119996;
        startFace       120095;
    }
    ground
    {
        type            wall;
        inGroups        1(wall);
        nFaces          600;
        startFace       240091;
    }
)
// ************************************************************************* //
