/*--------------------------------*- C++ -*----------------------------------*\
| =========                 |                                                 |
| \\      /  F ield         | OpenFOAM: The Open Source CFD Toolbox           |
|  \\    /   O peration     | Version:  2.3.0                                 |
|   \\  /    A nd           | Web:      www.OpenFOAM.org                      |
|    \\/     M anipulation  |                                                 |
\*---------------------------------------------------------------------------*/
FoamFile
{
    version     2.0;
    format      ascii;
    class       polyBoundaryMesh;
    location    "constant/polyMesh";
    object      boundary;
}
// * * * * * * * * * * * * * * * * * * * * * * * * * * * * * * * * * * * * * //

5
(
    inlet
    {
        type            inlet;
        nFaces          100;
        startFace       119300;
        faces           ( ( 0 3 7 4 ) );
    }
    outlet
    {
        type            outlet;
        nFaces          100;
        startFace       119400;
        faces           ( ( 1 2 6 5 ) );
    }
    ground
    {
        type            wall;
        inGroups        1(wall);
        nFaces          600;
        startFace       119500;
    }
    top
    {
        type            wall;
        inGroups        1(wall);
        nFaces          600;
        startFace       120100;
    }
    frontAndBack
    {
        type            empty;
        inGroups        1(empty);
        nFaces          120000;
        startFace       120700;
    }
)

// ************************************************************************* //
