FoamFile {
    version         2.2;
    format          ascii;

    root            "";
    case            "";
    instance        "constant";
    local           "";

    class           dictionary;
    object          gmtDict;
}

projection "X10c/8c";
projection2D XZ;
boundaryPatch ground;
separateLegend true;

FieldsToPlot (
    [divUf rawValues -0.006 0.006 0.001 "$GMTU/colours/red_white_blue.cpt"]
    [none mesh ",128"]
);

region "-10e3/10e3/0/8e3";
boundaryMarks "5e3/2e3SWne";
