FoamFile
{
    version         1.4;
    format          ascii;

    root            "";
    case            "";
    instance        "constant";
    local           "";

    class           dictionary;
    object          gmtDict;
}

// How to plot
// Compulsory inputs
projection "X40c/9c";
projection2D XZ;

FieldsToPlot (
//    [ExnerDiff rawValues -0.0003 0.00001 0.00005 "$GMTU/colours/red_white_blue.cpt"]
    [thetaDiff rawValues -0.1 0.1 0.01 "$GMTU/colours/red_white_blue.cpt"]
    [Uf vectors 50 1 "green"]
    [nonlinearMomentum vectors 8000 1 "red"]
    [none mesh "gray"]
);
annotate "minMax 0.01 -0.005";

region "-10e3/40e3/0/1e3";
boundaryMarks "20000/100";
