FoamFile
{
    version         1.4;
    format          ascii;

    root            "";
    case            "";
    instance        "constant";
    local           "";

    class           dictionary;
    object          gmtDict;
}

// How to plot
// Compulsory inputs
projection "X18c/9c";
projection2D XZ;

FieldsToPlot (
    [nonlinearMomentum vectors 200 1 "green"]
    [none mesh "gray"]
);
annotate "minMax 0.01 -0.005";

region "0e3/30e3/0/1e3";
boundaryMarks "30000/100";
