FoamFile
{
    version         1.4;
    format          ascii;

    root            "";
    case            "";
    instance        "constant";
    local           "";

    class           dictionary;
    object          gmtDict;
}

projection "X20c/6c";
projection2D XZ;
separateLegend true;

FieldsToPlot (
    [thetaDiff rawValues -0.5 0.5 0.01 "$GMTU/colours/red_white_blue.cpt"]
    [none mesh ",100"]
    [nonlinearMomentum vectors 8000 1 "black"]
);

region "-5e3/20e3/0/1.2e3";
boundaryMarks "5e3/300SWne";
