FoamFile {
    version         1.4;
    format          ascii;

    root            "";
    case            "";
    instance        "constant";
    local           "";

    class           dictionary;
    object          gmtDict;
}

projection "X10c/8c";
projection2D XZ;
separateLegend true;

FieldsToPlot (
    [thetaDiff rawValues -1.0 1.0 0.1 "$GMTU/colours/red_white_blue.cpt"]
);

region "-20e3/20e3/0/12e3";
boundaryMarks "10000/5000WSen";
