FoamFile
{
    version         1.4;
    format          ascii;

    root            "";
    case            "";
    instance        "constant";
    local           "";

    class           dictionary;
    object          gmtDict;
}

// How to plot
// Compulsory inputs
projection "X18c/9c";
projection2D XZ;

FieldsToPlot
1
(
    [thetaDiff filledContours -0.1 0.1 0.01 "$GMTU/colours/red_white_blue.cpt"]
//    [thetaDiff rawValues -0.1 0.1 0.01 "$GMTU/colours/red_white_blue.cpt"]
);
annotate "minMax 0.01 -0.005";

region "-150e3/150e3/0/20e3";
boundaryMarks "10000/1000";
