FoamFile {
    version         2.2;
    format          ascii;

    root            "";
    case            "";
    instance        "constant";
    local           "";

    class           dictionary;
    object          gmtDict;
}

projection "X10c/8c";
projection2D XZ;
boundaryPatch ground;

FieldsToPlot (
    [none mesh "black"]
    [theta contours 289 363 1 "red"]
);

region "-10e3/10e3/0/10e3";
boundaryMarks "5e3/5e3WSen";
