FoamFile
{
    version         1.4;
    format          ascii;

    root            "";
    case            "";
    instance        "constant";
    local           "";

    class           dictionary;
    object          gmtDict;
}

// How to plot
// Compulsory inputs
projection "X18c/9c";
projection2D XZ;

FieldsToPlot (
    [thetaDiff rawValues -0.1 0.1 0.01 "$GMTU/colours/red_white_blue.cpt"]
);
annotate "minMax 0.01 -0.005";

region "0e3/150e3/0/1e3";
boundaryMarks "30000/100";
