FoamFile {
    version         2.2;
    format          ascii;

    root            "";
    case            "";
    instance        "constant";
    local           "";

    class           dictionary;
    object          gmtDict;
}

projection "X10c/8c";
projection2D XZ;
boundaryPatch ground;

FieldsToPlot (
    [T rawValues -1 1 0.1 "$GMTU/colours/red_white_blue.cpt"]
    [none mesh "black"]
);

region "-10e3/10e3/0/10e3";
boundaryMarks "5e3/1e3";
