FoamFile
{
    version         1.4;
    format          ascii;

    root            "";
    case            "";
    instance        "constant";
    local           "";

    class           dictionary;
    object          gmtDict;
}

projection "X20c/6c";
projection2D XZ;

FieldsToPlot (
    [none mesh ",100"]
    [U vectors 50 1 "black"]
);

region "-25e3/25e3/0/5e3";
boundaryMarks "25e3/1e3SWne";
