FoamFile
{
    version         1.4;
    format          ascii;

    root            "";
    case            "";
    instance        "constant";
    local           "";

    class           dictionary;
    object          gmtDict;
}

projection "X18c/6c";
projection2D XZ;

FieldsToPlot (
    [none mesh ",200"]
    [U vectors 50 1 "black"]
);

region "-30e3/30e3/0/15e3";
boundaryMarks "10e3/5e3SWne";
