FoamFile
{
    version         1.4;
    format          ascii;

    root            "";
    case            "";
    instance        "constant";
    local           "";

    class           dictionary;
    object          gmtDict;
}

projection "X20c/6c";
projection2D XZ;

FieldsToPlot (
    [none mesh ",200"]
    [Uf vectors 50 1 "black"]
);

region "-5e3/20e3/0/1.2e3";
boundaryMarks "5e3/300SWne";
