FoamFile {
    version     2.0;
    format      ascii;
    class       dictionary;
    location    "system";
    object      controlDict;
}

application     simpleAdvection;
startFrom       startTime;
startTime       0;
stopAt          endTime;
endTime         15;
deltaT          0.01;
writeControl    timeStep;
writeInterval	10;
