FoamFile {
    version     2.0;
    format      ascii;
    class       dictionary;
    location    "system";
    object      controlDict;
}

application     simpleAdvection;
startFrom       startTime;
startTime       0;
stopAt          endTime;
endTime         10;
deltaT          0.1;
writeControl    timeStep;
writeInterval	10;
