FoamFile {
    version     2.0;
    format      ascii;
    class       dictionary;
    object      snappyHexMeshDict;
}

castellatedMesh true;
snap            false;
addLayers       false;

mergeTolerance	1e-06;

debug		0;

geometry {
	patchFaces_ground_constant.obj {
		type	triSurfaceMesh;	
	}
}

castellatedMeshControls {
	locationInMesh			(500 500 24750);
	maxLocalCells			100000;
	maxGlobalCells			2000000;
	minRefinementCells		0;
	resolveFeatureAngle		30;
	nCellsBetweenLevels		1;
	allowFreeStandingZoneFaces	true;

	features (
	);

	refinementSurfaces {
		patchFaces_ground_constant.obj {
			level		(0 0);
		}
	}

	refinementRegions {
	}
}

snapControls {
	nSmoothPatch			3;
	tolerance			2.0;
	nSolveIter			30;
	nRelaxIter			5;
}

addLayersControls {
	layers {
	}
	relativeSizes			true;
        expansionRatio			1.0;
	finalLayerThickness		0.3;
	minThickness			0.25;
	nGrow				0;
	featureAngle			130;
	maxFaceThicknessRatio		0.5;
	nBufferCellsNoExtrude		0;
	nLayerIter			50;
}

meshQualityControls {
	#include "$WM_PROJECT_DIR/etc/caseDicts/meshQualityDict"
}
